* T99J SPICE BSIM3 VERSION 3.1 PARAMETERS
* DATE: Dec 22/09
* LOT: T99J WAF: 7101
* TECHNOLOGY: SCN05
* URL: http://www.mosis.com/cgi-bin/cgiwrap/umosis/swp/params/
* ami-c5/t99j-params.txt
.model pmosmod pMOS
+ Level = 49
+ VERSION = 3.1 TNOM = 27 TOX = 1.42E-8
+ XJ = 1.5E-7 NCH = 1.7E17 VTH0 = -0.9152268
+ K1 = 0.553472 K2 = 7.871921E-3 K3 = 6.2769786
+ K3B = -0.4898254 W0 = 1.23924E-7 NLX = 1.141647E-7
+ DVT0W = 0 DVT1W = 0 DVT2W = 0
+ DVT0 = 0.9353874 DVT1 = 0.3671023 DVT2 = -0.1875761
+ U0 = 201.3603195 UA = 2.408572E-9 UB = 1E-21
+ UC = -1E-10 VSAT = 1.202516E5 A0 = 0.8828557
+ AGS = 0.088966 B0 = 5.175071E-7 B1 = 0
+ KETA = -4.865785E-3 A1 = 1.370912E-4 A2 = 0.4773832
+ RDSW = 3E3 PRWG = -0.0281209 PRWB = -0.0479695
+ WR = 1 WINT = 2.309781E-7 LINT = 1.226577E-7
* + XL = 1E-7 XW = 0
+ DWG = -5.470108E-9
+ DWB = -1.983267E-8 VOFF = -0.0625678 NFACTOR = 1.1137245
+ CIT = 0 CDSC = 2.4E-4 CDSCD = 0
+ CDSCB = 0 ETA0 = 0 ETAB = -0.2
+ DSUB = 1 PCLM = 2.3939111 PDIBLC1 = 0.0494294
+ PDIBLC2 = 3.663793E-3 PDIBLCB = -0.0364718 DROUT = 0.2462657
+ PSCBE1 = 1E8 PSCBE2 = 3.359223E-9 PVAG = 0.0150055
+ DELTA = 0.01 RSH = 105.9 MOBMOD = 1
+ PRT = 0 UTE = -1.5 KT1 = -0.11
+ KT1L = 0 KT2 = 0.022 UA1 = 4.31E-9
+ UB1 = -7.61E-18 UC1 = -5.6E-11 AT = 3.3E4
+ WL = 0 WLN = 1 WW = 0
+ WWN = 1 WWL = 0 LL = 0
+ LLN = 1 LW = 0 LWN = 1
+ LWL = 0 CAPMOD = 2 XPART = 0.5
+ CGDO = 2.3E-10 CGSO = 2.3E-10 CGBO = 1E-9
+ CJ = 7.238228E-4 PB = 0.8735391 MJ = 0.4909204
+ CJSW = 2.545206E-10 PBSW = 0.8 MJSW = 0.1987115
+ CJSWG = 6.4E-11 PBSWG = 0.8 MJSWG = 0.1987115
+ CF = 0 PVTH0 = 5.98016E-3 PRDSW = 14.8598424
+ PK2 = 3.73981E-3 WKETA = 0.0104146 LKETA = -8.958097E-3

.subckt pmosckt drain gate source bulk w=0.5u l=0.5u m=1
m0 drain gate source bulk pmosmod w={w} l={l} m={m}
+ ad={w*0.5u} as={w*0.5u}
+ pd={2*(w+0.5u)} ps={2*(w+0.5u)}
+ nrd={0.5u/w} nrs={0.5u/w}
.ends
